OBJECT Page 29 Vendor Ledger Entries
{
  OBJECT-PROPERTIES
  {
    Date=;
    Time=;
    Version List=NAVW114.00,4PS14.00,4PSSE;
  }
  PROPERTIES
  {
    Permissions=TableData 25=m;
    CaptionML=[ENU=Vendor Ledger Entries;
               NOR=Leverandõrposter;
               SVE=Lev.reskontratransaktioner];
    ApplicationArea=#Basic,#Suite;
    SaveValues=Yes;
    InsertAllowed=No;
    DeleteAllowed=No;
    SourceTable=Table25;
    SourceTableView=SORTING(Entry No.)
                    ORDER(Descending);
    DataCaptionFields=Vendor No.;
    PageType=List;
    UsageCategory=History;
    PromotedActionCategoriesML=[ENU=New,Process,Report,Line,Entry;
                                NOR=Ny,Prosess,Rapport,Linje,Oppfõring;
                                SVE=Ny,Process,Rapport,Rad,Transaktion];
    OnInit=BEGIN
             AmountVisible := TRUE;
           END;

    OnOpenPage=VAR
                 GLSetup@111285700 : Record 98;
                 EXApprovalSetup@1100285300 : Record 12013601;
               BEGIN
                 SetControlVisibility;
                 IF GETFILTERS <> '' THEN
                   IF FINDFIRST THEN;

                 //**4PS Generated Code. Do Not Change.sn01
                 DPA_IsHardFilter := DPA_SetFilters(CurrPage.OBJECTID(FALSE));
                 //**4PS Generated Code.en01
                 //4PSSE
                 GLSetup.GET;
                 DKinfoEnable := GLSetup."Danish Localization Active";
                 NORlocalizationEnable := GLSetup."Norwegian Localization Active";

                 ExFlowVisible := EXApprovalSetup.GET;                                //4PSSE  160815
               END;

    OnAfterGetRecord=BEGIN
                       StyleTxt := SetStyle;
                       //**4PS.sn  Call C006088
                       DMSStatus := 0;
                       DMSStatusText := '';
                       IF "Document Type" = "Document Type"::Invoice THEN BEGIN
                         CALCFIELDS("Invoice DMS Status", "Invoice DMS Status Text");
                         DMSStatus := "Invoice DMS Status";
                         DMSStatusText := "Invoice DMS Status Text";
                       END;
                       IF "Document Type" = "Document Type"::"Credit Memo" THEN BEGIN
                         CALCFIELDS("Credit Memo DMS Status", "Credit Memo DMS Status Text");
                         DMSStatus := "Credit Memo DMS Status";
                         DMSStatusText := "Credit Memo DMS Status Text";
                       END;
                       //**4PS.en  Call C006088

                       IF ExFlowVisible THEN
                         ExFlowHasAttachmentPostedDoc := HasAttachmentPostedDoc("Document Type","Document No.");
                     END;

    OnNewRecord=BEGIN
                  //**4PS Generated Code. Do Not Change.sn02
                  DPA_SetDefaultDepartment;
                  //**4PS Generated Code.en02
                END;

    OnInsertRecord=VAR
                     xRecRef@1100000999 : RecordRef;
                   BEGIN
                     //**4PS Generated Code. Do Not Change.sn05
                     xRecRef.GETTABLE(xRec);
                     DPA_SetDefaultDpmtFromNoSeries(xRecRef);
                     //**4PS Generated Code.en05
                   END;

    OnModifyRecord=BEGIN
                     CODEUNIT.RUN(CODEUNIT::"Vend. Entry-Edit",Rec);
                     EXIT(FALSE);
                   END;

    OnAfterGetCurrRecord=VAR
                           IncomingDocument@1000 : Record 130;
                         BEGIN
                           HasIncomingDocument := IncomingDocument.PostedDocExists("Document No.","Posting Date");
                           CurrPage.IncomingDocAttachFactBox.PAGE.LoadDataFromRecord(Rec);
                           HasDocumentAttachment := HasPostedDocAttachment;
                         END;

    ActionList=ACTIONS
    {
      { 1900000003;0 ;ActionContainer;
                      ActionContainerType=RelatedInformation }
      { 53      ;1   ;ActionGroup;
                      CaptionML=[ENU=Ent&ry;
                                 NOR=&Post;
                                 SVE=Tra&nsaktion];
                      Image=Entry }
      { 72      ;2   ;Action    ;
                      Name=AppliedEntries;
                      CaptionML=[ENU=Applied E&ntries;
                                 NOR=Utlignede p&oster;
                                 SVE=&Kopplade transaktioner];
                      ToolTipML=[ENU=View the ledger entries that have been applied to this record.;
                                 NOR=Vis postene som har blitt brukt for denne posten.;
                                 SVE=Visa transaktionerna som har tillÑmpats pÜ denna post.];
                      ApplicationArea=#Basic,#Suite;
                      RunObject=Page 62;
                      RunPageOnRec=Yes;
                      Image=Approve;
                      PromotedCategory=Category5;
                      Scope=Repeater }
      { 55      ;2   ;Action    ;
                      AccessByPermission=TableData 348=R;
                      ShortCutKey=Shift+Ctrl+D;
                      CaptionML=[ENU=Dimensions;
                                 NOR=Dimensjoner;
                                 SVE=Dimensioner];
                      ToolTipML=[ENU=View or edit dimensions, such as area, project, or department, that you can assign to sales and purchase documents to distribute costs and analyze transaction history.;
                                 NOR=Vis eller rediger dimensjoner, for eksempel omrÜde, prosjekt eller avdeling, som du kan tilordne til salgs- og kjõpsdokumenter for Ü distribuere kostnader og analysere transaksjonshistorikk.;
                                 SVE=Visa eller redigera mÜtt, till exempel omrÜde, projekt eller avdelning, som du kan tilldela till fîrsÑljnings- och inkîpsdokument fîr att fîrdela kostnader och analysera transaktionshistorik.];
                      ApplicationArea=#Dimensions;
                      Promoted=Yes;
                      Image=Dimensions;
                      PromotedCategory=Category5;
                      Scope=Repeater;
                      OnAction=BEGIN
                                 ShowDimensions;
                               END;
                                }
      { 29      ;2   ;Action    ;
                      Name=SetDimensionFilter;
                      Ellipsis=Yes;
                      CaptionML=[ENU=Set Dimension Filter;
                                 NOR=Angi dimensjonsfilter;
                                 SVE=Ange dimensionsfilter];
                      ToolTipML=[ENU=Limit the entries according to the dimension filters that you specify. NOTE: If you use a high number of dimension combinations, this function may not work and can result in a message that the SQL server only supports a maximum of 2100 parameters.;
                                 NOR=Begrens postene i henhold til dimensjonsfiltrene du spesifiserer. MERK: Hvis du bruker mange dimensjonskombinasjoner, kan det vëre at denne funksjonen ikke fungerer, og at du fÜr en melding med beskjed om at SQL-serveren stõtter maksimalt 2100 parametre.;
                                 SVE=BegrÑnsa transaktionerna enligt dimensionsfiltren som du anger. Obs! Om du anvÑnder ett stort antal dimensionskombinationer kanske funktionen inte fungerar och det kan leda till ett meddelande om att SQL Server bara stîder hîgst 2 100 parametrar.];
                      ApplicationArea=#Dimensions;
                      Promoted=Yes;
                      Image=Filter;
                      PromotedCategory=Category5;
                      OnAction=BEGIN
                                 SETFILTER("Dimension Set ID",DimensionSetIDFilter.LookupFilter);
                               END;
                                }
      { 54      ;2   ;Action    ;
                      ShortCutKey=Ctrl+F7;
                      CaptionML=[ENU=Detailed &Ledger Entries;
                                 NOR=Deta&ljerte poster;
                                 SVE=Detaljerad &reskontra];
                      ToolTipML=[ENU=View a summary of the all posted entries and adjustments related to a specific vendor ledger entry;
                                 NOR=Vis et sammendrag av alle bokfõrte poster og justeringer som er knyttet til en bestemt leverandõrpost;
                                 SVE=Visa en îversikt av alla bokfîrda transaktioner och justeringar som rîr en viss leverantîrsreskontratransaktion];
                      ApplicationArea=#Basic,#Suite;
                      RunObject=Page 574;
                      RunPageView=SORTING(Vendor Ledger Entry No.,Posting Date);
                      RunPageLink=Vendor Ledger Entry No.=FIELD(Entry No.),
                                  Vendor No.=FIELD(Vendor No.);
                      Promoted=Yes;
                      Image=View;
                      PromotedCategory=Category5;
                      Scope=Repeater }
      { 1100485006;2 ;Action    ;
                      CaptionML=[ENU=Approval Entries;
                                 SVE=GodkÑnnandetransaktioner];
                      Image=BOMLedger;
                      OnAction=BEGIN
                                 ApprovalManagement4PSConstr.DrillDownApprovalEntriesDocument("Document Type","Document No.");
                               END;
                                }
      { 1101200014;2 ;Action    ;
                      CaptionML=[ENU=WKA Data;
                                 SVE=WKA-data];
                      RunObject=Page 11012060;
                      RunPageOnRec=Yes;
                      RunPageLink=Vendor No.=FIELD(Vendor No.),
                                  Document No.=FIELD(Document No.);
                      Image=SubcontractingWorksheet }
      { 1100528300;2 ;Action    ;
                      CaptionML=[ENU=Create Subcontracting Hours;
                                 NOR=Opprette Underkontraktstimer;
                                 SVE=Skapa underentreprenadstimmar];
                      Image=SubcontractingWorksheet;
                      OnAction=VAR
                                 SubcontractingHoursInvoice@1100528300 : Record 11020694;
                               BEGIN
                                 //**4PS.n
                                 SubcontractingHoursInvoice.RunPageFromVendorLedgerEntry(Rec);
                               END;
                                }
      { 1210190001;2 ;Action    ;
                      ShortCutKey=Ctrl+T;
                      CaptionML=[ENU=Comment;
                                 NOR=Kommentar;
                                 SVE=Kommentar];
                      Image=Comment;
                      OnAction=VAR
                                 PurchaseCommentLine@1210190000 : Record 43;
                               BEGIN
                                 // 33558.n
                                 SetDocumentTypeFilterCommentLine(PurchaseCommentLine);
                                 PurchaseCommentLine.SETRANGE("No.", "Document No.");
                                 PurchaseCommentLine.SETRANGE("Document Line No.",0);
                                 PAGE.RUNMODAL(PAGE::"Purch. Comment Sheet",PurchaseCommentLine);
                               END;
                                }
      { 1100485009;2 ;Action    ;
                      ShortCutKey=Shift+Ctrl+S;
                      CaptionML=[ENU=Scanned document;
                                 NOR=Skannet Dokument;
                                 SVE=Skannade dokument];
                      Image=PrintReport;
                      OnAction=VAR
                                 lvPurchSetupRec@1100485001 : Record 312;
                               BEGIN
                                 lvPurchSetupRec.GET;
                                 lvPurchSetupRec.ShowScannedDocumentWithDocNo("Document No.");
                               END;
                                }
      { 1100525001;0 ;ActionContainer;
                      ActionContainerType=ActionItems }
      { 34      ;1   ;ActionGroup;
                      CaptionML=[ENU=F&unctions;
                                 NOR=F&unksjoner;
                                 SVE=F&unktioner];
                      Image=Action }
      { 36      ;2   ;Action    ;
                      Name=ActionApplyEntries;
                      ShortCutKey=Shift+F11;
                      CaptionML=[ENU=Apply Entries;
                                 NOR=Utlign poster;
                                 SVE=Koppla transaktioner];
                      ToolTipML=[ENU=Select one or more ledger entries that you want to apply this record to so that the related posted documents are closed as paid or refunded.;
                                 NOR=Velg Çn eller flere poster du vil utligne mot denne posten slik at de relaterte bokfõrte dokumentene lukkes som betalte eller refunderte.;
                                 SVE=VÑlj en eller flera transaktioner som du vill tillÑmpa den hÑr posten pÜ sÜ att relaterade bokfîrda dokument anges vara betalda eller Üterbetalda.];
                      ApplicationArea=#Basic,#Suite;
                      Promoted=Yes;
                      Image=ApplyEntries;
                      PromotedCategory=Process;
                      Scope=Repeater;
                      OnAction=VAR
                                 VendLedgEntry@1001 : Record 25;
                                 VendEntryApplyPostEntries@1000 : Codeunit 227;
                               BEGIN
                                 VendLedgEntry.COPY(Rec);
                                 VendEntryApplyPostEntries.ApplyVendEntryFormEntry(VendLedgEntry);
                                 VendLedgEntry.GET(VendLedgEntry."Entry No.");
                                 Rec := VendLedgEntry;
                                 CurrPage.UPDATE;
                               END;
                                }
      { 67      ;2   ;Action    ;
                      Name=UnapplyEntries;
                      Ellipsis=Yes;
                      CaptionML=[ENU=Unapply Entries;
                                 NOR=Opphev utligning;
                                 SVE=Ta bort koppling pÜ trans.];
                      ToolTipML=[ENU=Unselect one or more ledger entries that you want to unapply this record.;
                                 NOR=Opphev merkingen av Çn eller flere poster du vil oppheve utligningen av denne posten for.;
                                 SVE=Avmarkera en eller flera transaktioner som du inte lÑngre vill ska gÑlla denna post.];
                      ApplicationArea=#Basic,#Suite;
                      Promoted=Yes;
                      Image=UnApply;
                      PromotedCategory=Process;
                      Scope=Repeater;
                      OnAction=VAR
                                 VendEntryApplyPostedEntries@1000 : Codeunit 227;
                               BEGIN
                                 VendEntryApplyPostedEntries.UnApplyVendLedgEntry("Entry No.");
                               END;
                                }
      { 69      ;2   ;Action    ;
                      Name=ReverseTransaction;
                      Ellipsis=Yes;
                      CaptionML=[ENU=Reverse Transaction;
                                 NOR=Tilbakefõr transaksjon;
                                 SVE=èterfîr transaktion];
                      ToolTipML=[ENU=Reverse an erroneous vendor ledger entry.;
                                 NOR=Tilbakefõr en leverandõrpost som inneholder feil.;
                                 SVE=Ta bort en felaktig leverantîrsreskontratransaktion.];
                      ApplicationArea=#Basic,#Suite;
                      Promoted=Yes;
                      Image=ReverseRegister;
                      PromotedCategory=Process;
                      Scope=Repeater;
                      OnAction=VAR
                                 ReversalEntry@1000 : Record 179;
                               BEGIN
                                 CLEAR(ReversalEntry);
                                 IF Reversed THEN
                                   ReversalEntry.AlreadyReversedEntry(TABLECAPTION,"Entry No.");
                                 IF "Journal Batch Name" = '' THEN
                                   ReversalEntry.TestFieldError;
                                 TESTFIELD("Transaction No.");
                                 ReversalEntry.ReverseTransaction("Transaction No.");
                               END;
                                }
      { 12013588;2   ;Separator  }
      { 12013589;2   ;Action    ;
                      ShortCutKey=Ctrl+I;
                      CaptionML=[ENU=&Show Document;
                                 NOR=V&is dokument;
                                 SVE=&Visa dokument];
                      Visible=ExFlowVisible;
                      Image=Document;
                      OnAction=BEGIN
                                 // ExFlow
                                 ExFlow.ShowImagePostedDoc("Document Type","Document No.");
                               END;
                                }
      { 12013590;2   ;Action    ;
                      ShortCutKey=Ctrl+B;
                      CaptionML=[ENU=Attached Fil&es;
                                 NOR=Vedlagte filer;
                                 SVE=&Bilagor];
                      Visible=ExFlowVisible;
                      Image=Documents;
                      OnAction=BEGIN
                                 // ExFlow
                                 ExFlow.ShowAttachmentPostedDoc("Document Type", "Document No.");
                               END;
                                }
      { 17      ;2   ;ActionGroup;
                      Name=IncomingDocument;
                      CaptionML=[ENU=Incoming Document;
                                 NOR=InngÜende dokument;
                                 SVE=Inkommande dokument];
                      ActionContainerType=NewDocumentItems;
                      Image=Documents }
      { 19      ;3   ;Action    ;
                      Name=IncomingDocCard;
                      CaptionML=[ENU=View Incoming Document;
                                 NOR=Vis inngÜende dokument;
                                 SVE=Visa inkommande dokument];
                      ToolTipML=[ENU=View any incoming document records and file attachments that exist for the entry or document.;
                                 NOR=Vis poster og filvedlegg for innkommende dokument som finnes for oppfõringen eller dokumentet.;
                                 SVE=Visa alla poster med inkommande dokument och filbilagor som finns fîr transaktionen eller dokumentet.];
                      ApplicationArea=#Basic,#Suite;
                      Enabled=HasIncomingDocument;
                      Image=ViewOrder;
                      OnAction=VAR
                                 IncomingDocument@1000 : Record 130;
                               BEGIN
                                 IncomingDocument.ShowCard("Document No.","Posting Date");
                               END;
                                }
      { 11      ;3   ;Action    ;
                      Name=SelectIncomingDoc;
                      AccessByPermission=TableData 130=R;
                      CaptionML=[ENU=Select Incoming Document;
                                 NOR=Velg inngÜende dokument;
                                 SVE=VÑlj inkommande dokument];
                      ToolTipML=[ENU=Select an incoming document record and file attachment that you want to link to the entry or document.;
                                 NOR=Velg en post og et filvedlegg for innkommende dokument som du vil koble til oppfõringen eller dokumentet.;
                                 SVE=VÑlj en post fîr inkommande dokument och en filbilaga som du vill koppla till transaktionen eller dokumentet.];
                      ApplicationArea=#Basic,#Suite;
                      Enabled=NOT HasIncomingDocument;
                      Image=SelectLineToApply;
                      OnAction=VAR
                                 IncomingDocument@1000 : Record 130;
                               BEGIN
                                 IncomingDocument.SelectIncomingDocumentForPostedDocument("Document No.","Posting Date",RECORDID);
                               END;
                                }
      { 15      ;3   ;Action    ;
                      Name=IncomingDocAttachFile;
                      Ellipsis=Yes;
                      CaptionML=[ENU=Create Incoming Document from File;
                                 NOR=Opprett inngÜende dokument fra fil;
                                 SVE=Skapa inkommande dokument frÜn fil];
                      ToolTipML=[ENU=Create an incoming document record by selecting a file to attach, and then link the incoming document record to the entry or document.;
                                 NOR=Opprett en post for innkommende dokument ved Ü velge en fil som skal legges ved, og koble deretter posten for det innkommende dokumentet til oppfõringen eller dokumentet.;
                                 SVE=Skapa en post fîr inkommande dokument genom att vÑlja en fil att bifoga. Koppla sedan posten om det inkommande dokumentet till transaktionen eller dokumentet.];
                      ApplicationArea=#Basic,#Suite;
                      Enabled=NOT HasIncomingDocument;
                      Image=Attach;
                      OnAction=VAR
                                 IncomingDocumentAttachment@1000 : Record 133;
                               BEGIN
                                 IncomingDocumentAttachment.NewAttachmentFromPostedDocument("Document No.","Posting Date");
                               END;
                                }
      { 1060003 ;1   ;Action    ;
                      Name=ExportPaymentsToFile;
                      CaptionML=[ENU=Export Payments to File;
                                 NOR=Eksporter utbetalinger til fil;
                                 SVE=Exportera betalningar till fil];
                      ToolTipML=ENU=Export a file with the payment information from the ledger entries.;
                      ApplicationArea=#Basic,#Suite;
                      Promoted=Yes;
                      Visible=DKinfoEnable;
                      PromotedIsBig=Yes;
                      Image=ExportFile;
                      PromotedCategory=Process;
                      OnAction=VAR
                                 VendorLedgerEntry@1000 : Record 25;
                                 PmtExportMgtVendLedgEntry@1001 : Codeunit 1207;
                               BEGIN
                                 CurrPage.SETSELECTIONFILTER(VendorLedgerEntry);
                                 VendorLedgerEntry.FINDFIRST;
                                 PmtExportMgtVendLedgEntry.ExportVendorPaymentFileYN(VendorLedgerEntry);
                               END;
                                }
      { 37      ;1   ;Action    ;
                      CaptionML=[ENU=&Navigate;
                                 NOR=&Naviger;
                                 SVE=Anal&ysera];
                      ToolTipML=[ENU=Find all entries and documents that exist for the document number and posting date on the selected entry or document.;
                                 NOR=Finn alle oppfõringer og dokumenter som finnes for dokumentnummeret og bokfõringsdatoen i den valgte oppfõringen eller dokumentet.;
                                 SVE=Sîk efter alla transaktioner och dokument som existerar fîr dokumentnumret och bokfîringsdatumet fîr den valda transaktionen eller det valda dokumentet.];
                      ApplicationArea=#Basic,#Suite;
                      Promoted=Yes;
                      PromotedIsBig=Yes;
                      Image=Navigate;
                      PromotedCategory=Category5;
                      Scope=Repeater;
                      OnAction=BEGIN
                                 //**4PS.sn C-026529
                                 IF ("Document No." <> '') AND ("Document Type" IN ["Document Type"::Invoice, "Document Type"::"Credit Memo"]) THEN
                                   Navigate.SetDoc(0D, "Document No.")
                                 ELSE
                                 //**4PS.en
                                   Navigate.SetDoc("Posting Date","Document No.");
                                 Navigate.RUN;
                               END;
                                }
      { 13      ;1   ;Action    ;
                      ShortCutKey=Return;
                      CaptionML=[ENU=Show Document;
                                 NOR=Vis dokument;
                                 SVE=Visa dokument];
                      ToolTipML=[ENU=Show details for the posted payment, invoice, or credit memo.;
                                 NOR=Vis detaljer for den bokfõrte betalingen, fakturaen eller kreditnotaen.;
                                 SVE=Visa detaljer om den bokfîrda betalningen, fakturan eller kreditnotan.];
                      ApplicationArea=#Basic,#Suite;
                      Promoted=Yes;
                      PromotedIsBig=Yes;
                      Image=Document;
                      PromotedCategory=Category4;
                      OnAction=BEGIN
                                 ShowDoc
                               END;
                                }
      { 31      ;1   ;Action    ;
                      Name=ShowDocumentAttachment;
                      CaptionML=[ENU=Show Document Attachment;
                                 NOR=Vis dokumentvedlegg;
                                 SVE=Visa dokumentbilaga];
                      ToolTipML=[ENU=View documents or images that are attached to the posted invoice or credit memo.;
                                 NOR=Vis dokumenter eller bilder som er knyttet til den bokfõrte fakturaen eller kreditnotaen.;
                                 SVE=Visa dokument eller bilder som Ñr kopplade till den bokfîrda fakturan eller kreditnotan.];
                      ApplicationArea=#Basic,#Suite;
                      Promoted=Yes;
                      Enabled=HasDocumentAttachment;
                      PromotedIsBig=Yes;
                      Image=Attach;
                      PromotedCategory=Category4;
                      OnAction=BEGIN
                                 ShowPostedDocAttachment;
                               END;
                                }
      { 27      ;1   ;Action    ;
                      Name=Create Payment;
                      CaptionML=[ENU=Create Payment;
                                 NOR=Opprett betaling;
                                 SVE=Skapa betalning];
                      ToolTipML=[ENU=Create a payment journal based on the selected invoices.;
                                 NOR=Opprett en betalingskladd basert pÜ de valgte fakturaene.;
                                 SVE=Skapa en utbetalningsjournal baserat pÜ de markerade fakturorna.];
                      ApplicationArea=#Basic,#Suite;
                      Promoted=Yes;
                      PromotedIsBig=Yes;
                      Image=SuggestVendorPayments;
                      PromotedCategory=Process;
                      OnAction=VAR
                                 VendorLedgerEntry@1000 : Record 25;
                                 GenJournalBatch@1001 : Record 232;
                                 GenJnlManagement@1005 : Codeunit 230;
                               BEGIN
                                 CurrPage.SETSELECTIONFILTER(VendorLedgerEntry);
                                 IF CreatePayment.RUNMODAL = ACTION::OK THEN BEGIN
                                   CreatePayment.MakeGenJnlLines(VendorLedgerEntry);
                                   GetBatchRecord(GenJournalBatch);
                                   GenJnlManagement.TemplateSelectionFromBatch(GenJournalBatch);
                                   CLEAR(CreatePayment);
                                 END ELSE
                                   CLEAR(CreatePayment);
                               END;
                                }
    }
  }
  CONTROLS
  {
    { 1900000001;0;Container;
                ContainerType=ContentArea }

    { 1   ;1   ;Group     ;
                GroupType=Repeater }

    { 2   ;2   ;Field     ;
                ToolTipML=[ENU=Specifies the vendor entry's posting date.;
                           NOR=Angir leverandõrpostens bokfõringsdato.;
                           SVE=Anger leverantîrstransaktionens bokfîringsdatum.];
                ApplicationArea=#Basic,#Suite;
                SourceExpr="Posting Date";
                Editable=FALSE }

    { 4   ;2   ;Field     ;
                ToolTipML=[ENU=Specifies the document type that the vendor entry belongs to.;
                           NOR=Angir dokumenttypen som leverandõrposten tilhõrer.;
                           SVE=Anger dokumenttypen som leverantîrstransaktionen hîr till.];
                ApplicationArea=#Basic,#Suite;
                SourceExpr="Document Type";
                Editable=FALSE;
                StyleExpr=StyleTxt }

    { 6   ;2   ;Field     ;
                ToolTipML=[ENU=Specifies the vendor entry's document number.;
                           NOR=Angir leverandõrpostens dokumentnummer.;
                           SVE=Anger leverantîrstransaktionens verifikationsnummer.];
                ApplicationArea=#Basic,#Suite;
                SourceExpr="Document No.";
                Editable=FALSE;
                StyleExpr=StyleTxt }

    { 1210190000;2;Field  ;
                SourceExpr="Document Date";
                Visible=FALSE;
                Editable=FALSE }
