OBJECT Page 11012004 Budget Subform
{
  OBJECT-PROPERTIES
  {
    Date=;
    Time=;
    Version List=4PS14.00,4PSSE;
  }
  PROPERTIES
  {
    CaptionML=[ENU=Lines;
               NOR=Rader;
               SVE=Rader];
    SourceTable=Table11012001;
    SourceTableView=WHERE(Budget Summary Line=FILTER(No));
    PageType=ListPart;
    TimerUpdate=0;
    AutoSplitKey=Yes;
    OnInit=BEGIN
             FILTERGROUP(4);
             "Project No." := GETFILTER("Project No.");
             FILTERGROUP(0);
           END;

    OnOpenPage=VAR
                 InstallationMng@1100525000 : Codeunit 11012268;
                 FPSLicenseManagement@1100527400 : Codeunit 11229289;
               BEGIN
                 //**4PS Generated Code. Do Not Change.sn01
                 DPA_IsHardFilter := DPA_SetFilters(CurrPage.OBJECTID(FALSE));
                 //**4PS Generated Code.en01
                 TradeItemEnabled := FPSLicenseManagement.LicenseAndReadPermissionForTable(ItemSetup);

                 JobsSetup.GET();
                 CostComponentEditable := JobsSetup."Cost Component Editable";

                 FILTERGROUP(4);
                 "Project No." := GETFILTER("Project No.");
                 FILTERGROUP(0);
                 TableLinkedTradeItemInLicense := InstallationMng.LicensePermissionForTableData(DATABASE::"Linked Trade Item");
                 //4PSSE 018+++
                 BudgetLinePurchGoalrec.BudgetGoalSynch(Rec);
                 //4PSSE 018---
               END;

    OnClosePage=BEGIN
                  RecalcSummarySheet;
                END;

    OnAfterGetRecord=BEGIN
                       //4PSSE 018+++
                       BudgetTargetAmount := 0;
                       BudgetTargetPerc   := 0;
                       //4PSSE 018---

                       RefQuote := RouteRefMgtCU.GetQuoteOfReference("Purchase Route Reference");
                       GetItemSpecifications;

                       IF gFromReference THEN BEGIN
                         gFromReference := FALSE;
                         SETRANGE("Line No.");
                       END;

                       KeyChangedBySystem := FALSE;
                       DescriptionOnFormat;
                       IF "Project No." <> '' THEN
                         SETRANGE("Project No.", "Project No.");
                       GetBudgetPlanningActivitiesForDisplay(BudgetPlanningActivityNo,BudgetPlanningActDescr);  //UKR-C21177 (BI017)
                       RecalcSummarySheet;
                       //4PSSE 018+++
                       BudgetLinePurchGoalrec.BudgetGoalFind(Rec,BudgetTargetAmount,BudgetTargetPerc);
                       //4PSSE 018---
                     END;

    OnNewRecord=VAR
                  Job@1100528901 : Record 11072003;
                BEGIN
                  //**4PS Generated Code. Do Not Change.sn02
                  //DPA_SetDefaultDepartment; //*31927.o Not department of the user must always be that of the project (done in OnInsert of table)
                  //**4PS Generated Code.en02
                  RefQuote := '';
                  GetVersionDate;
                  IF "Project No." <> '' THEN
                    VALIDATE("Cost Type", xRec."Cost Type");  //*C-025993.n
                  //**4PS.sn BI017 KD 20-10-16
                  BudgetPlanningActivityNo := '';
                  BudgetPlanningActDescr := '';
                  //**4PS.en BI017 KD 20-10-16

                  //4PSSE 018+++
                  BudgetTargetAmount := 0;
                  //>>IME-034
                  //BudgetTargetPerc   := 100;
                  BudgetTargetPerc   := 0;
                  //<<IME-034
                  //4PSSE 018---

                  IF Job.GET("Project No.") THEN BEGIN  //C055159
                    "Plant Rates in Hours" := Job."Plant Rates in Hours";  //DP02115
                    "Plant Company" := Job."Plant Company";
                  END;
                END;

    OnInsertRecord=VAR
                     ExtensionContract@1100529501 : Record 11012004;
                   BEGIN
                     Fixed := BudgetFixed(Rec);
                     IF Fixed THEN
                       ERROR(Text000);

                     IF NOT KeyChangedBySystem THEN BEGIN
                       IF "Extension Contract" <> '' THEN BEGIN
                         ExtensionContract.GET("Project No.", "Extension Contract");  //C034488: if header filled with default contract but no written to database, skip insert summary
                         SETCURRENTKEY("Project No.","Extension Contract","Line No.");
                         KeyChangedBySystem := TRUE;
                       END;
                       IF Adjustment <> '' THEN BEGIN
                         SETCURRENTKEY("Project No.",Adjustment,"Line No.");
                         KeyChangedBySystem := TRUE;
                       END;
                     END;

                     IF TableLinkedTradeItemInLicense THEN
                       LinkedTradeItem.AddTradeItemsBudgetLine(Rec, 0);

                     IF (Quantity <> 0) OR
                        ("Amount (LCY)" <> 0)
                     THEN BEGIN
                       FillChangedSummarySheet(Rec, FALSE);
                       //RecalcSummarySheet;
                     END;
                     //4PSSE 018+++
                     BudgetLinePurchGoalrec.BudgetGoalUpdate(Rec,BudgetTargetAmount,BudgetTargetPerc);
                     //4PSSE 018---
                   END;

    OnModifyRecord=BEGIN
                     IF TableLinkedTradeItemInLicense THEN
                       LinkedTradeItem.AddTradeItemsBudgetLine(Rec, 1);

                     IF (xRec.Quantity <> Quantity) OR
                        (xRec.Hours <> Hours ) OR
                        (xRec."Amount (LCY)" <> "Amount (LCY)") OR
                        (xRec."Cost Object" <> "Cost Object") OR //M25061
                        (xRec."Cost Type" <> "Cost Type") THEN BEGIN
                       FillChangedSummarySheet(Rec, FALSE);
                       //RecalcSummarySheet;
                     END;
                     //4PSSE 018+++
                     BudgetLinePurchGoalrec.BudgetGoalUpdate(Rec,BudgetTargetAmount,BudgetTargetPerc);
                     //4PSSE 018---
                   END;

    OnDeleteRecord=BEGIN
                     Fixed := BudgetFixed(Rec);
                     IF Fixed THEN
                       ERROR(Text001);

                     //DeleteSummaryLinesExtAdjust; //call 29724  //29724-2.o
                     //FillChangedSummarySheet(Rec, TRUE);        //29724-2.o
                     //29724-2.sn
                     IF DeleteSummaryLinesExtAdjust THEN   // If last line of contract and/or adjusment is deleted
                       FillChangedSummarySheet(Rec, TRUE)
                     ELSE
                       FillChangedSummarySheet(Rec, FALSE);
                     //29724-2.en

                     DELETE(FALSE);
                     RecalcSummarySheet;
                     INSERT(FALSE);

                     //4PSSE 018+++
                     BudgetLinePurchGoalrec.BudgetGoalDelete(Rec);
                     //4PSSE 018---
                   END;

    OnAfterGetCurrRecord=BEGIN
                           Fixed := BudgetFixed(Rec);

                           CALCFIELDS("Total Labor", "Total material", "Total Subcontracting", "Total Plant", "Total Sundry",
                             "Total Hours", "Total Amount");

                           SetFieldsEditable;
                         END;

    ActionList=ACTIONS
    {
      { 1900000004;0 ;ActionContainer;
                      ActionContainerType=ActionItems }
      { 1906587504;1 ;ActionGroup;
                      CaptionML=[ENU=F&unctions;
                                 NOR=Fu&nksjon;
                                 SVE=F&unktion] }
      { 1100525023;2 ;Action    ;
                      Name=CopyPasteButton;
                      CaptionML=[ENU=&Copy;
                                 NOR=&Kopier;
                                 SVE=&Kopiera];
                      Image=Copy;
                      OnAction=VAR
                                 BudgetLine@1100525002 : Record 11012001;
                                 Job@1100525004 : Record 11072003;
                                 ExtensionContract@1100525000 : Record 11012004;
                                 CopyBudgetPage@1100525001 : Page 11130145;
                                 ContractNo@1100525003 : Code[20];
                               BEGIN
                                 CASE gMainPageID OF
                                   PAGE::"Project Budget":
                                     BEGIN
                                       TESTFIELD("Project No.");
                                       Job.GET("Project No.");
                                       Job.TESTFIELD("Budget Fixed", FALSE);

                                     END;
                                   PAGE::"Extension Contract":
                                     BEGIN
                                       TESTFIELD("Project No.");
                                       TESTFIELD("Extension Contract");
                                       ExtensionContract.GET("Project No.", "Extension Contract");
                                       ExtensionContract.TESTFIELD("Extension Fixed", FALSE);
                                       ContractNo := "Extension Contract";
                                     END;
                                 ELSE
                                   EXIT;
                                 END;

                                 // Copy from original budget
                                 BudgetLine.SETRANGE("Project No.", "Project No.");
                                 BudgetLine.SETFILTER(Adjustment, '%1','');
                                 BudgetLine.SETFILTER("Adjustment Filter", '%1','');
                                 BudgetLine.SETFILTER("Extension Contract", '%1','');
                                 BudgetLine.SETFILTER("Extension Filter", '%1','');
                                 BudgetLine.SETFILTER(Option, '%1','');

                                 CopyBudgetPage.SETTABLEVIEW(BudgetLine);
                                 CopyBudgetPage.SetToSelection("Project No.", ContractNo, "Line No.");
                                 CopyBudgetPage.StdDialogRunModal;
                               END;
                                }
      { 1100525001;2 ;Action    ;
                      Name=ReverseButton;
                      CaptionML=[ENU=&Reverse;
                                 NOR=&Tilbakef›r;
                                 SVE=&terf”r];
                      Image=ReverseLines;
                      OnAction=VAR
                                 ExtensionRec@1100525000 : Record 11012004;
                               BEGIN
                                 //Used in Extension Contract.
                                 IF "Extension Contract" = '' THEN
                                   EXIT;

                                 IF ExtensionRec.GET("Project No.", "Extension Contract") THEN;
                                 IF ExtensionRec."Extension Fixed" THEN
                                   ERROR(Text002);

                                 ShiftQuantity;
                               END;
                                }
      { 1210190001;2 ;Action    ;
                      Name=RecalculateSummary;
                      CaptionML=ENU=Recalculate Summary Sheet;
                      Image=Recalculate;
                      OnAction=VAR
                                 BudgetLine@1100529400 : Record 11012001;
                               BEGIN
                                 //DP01269.sn
                                 BudgetLine.COPY(Rec);
                                 BudgetLine.SETRANGE("Budget Summary Line", FALSE);
                                 IF BudgetLine.FINDFIRST THEN
                                 ProcessSummarySheet(BudgetLine,FALSE);
                                 //DP01269.en
                               END;
                                }
      { 1901111604;2 ;Action    ;
                      Name=ChangeVendor;
                      CaptionML=[ENU=Modify Vendor Collectively;
                                 NOR=Endre leverand›r kollektivt;
                                 SVE=Žndra leverant”r kollektivt];
                      Image=Vendor;
                      OnAction=BEGIN
                                 UpdateVendor;
                               END;
                                }
      { 1907905804;1 ;ActionGroup;
                      CaptionML=[ENU=Budgetline;
                                 NOR=Budsjettline] }
      { 1906995904;2 ;Action    ;
                      CaptionML=[ENU=&Text;
                                 NOR=&Tekst;
                                 SVE=&Text];
                      Image=Text;
                      OnAction=BEGIN
                                 //This functionality was copied from page #11012013. Unsupported part was commented. Please check it.
                                 EditText;
                               END;
                                }
      { 1100525005;2 ;Action    ;
                      CaptionML=[ENU=Comment Lines (Budget Line);
                                 NOR=Kommentarrader (Budsjettrad);
                                 SVE=Kommentarsrader (budgetrad)];
                      Image=ViewComments;
                      OnAction=BEGIN
                                 EditCommentLines;
                               END;
                                }
      { 1100409001;2 ;Action    ;
                      CaptionML=ENU=Split Project Planning Activity No.;
                      RunPageOnRec=Yes;
                      Image=SplitLines;
                      OnAction=VAR
                                 BudgetLine@1100528801 : Record 11012001;
                                 SplitProjlanningActivityPage@1100528800 : Page 11132121;
                               BEGIN
                                 CurrPage.SETSELECTIONFILTER(BudgetLine);
                                 IF BudgetLine.COUNT > 1 THEN
                                   ERROR(Text015);

                                 TESTFIELD("Project Planning Activity No.");

                                 SplitProjlanningActivityPage.SETTABLEVIEW(BudgetLine);
                                 SplitProjlanningActivityPage.RUNMODAL;
                               END;
                                }
      { 1900854904;1 ;ActionGroup;
                      CaptionML=[ENU=&Project;
                                 NOR=Prosjekt;
                                 SVE=&Projekt] }
      { 1903665304;2 ;Action    ;
                      CaptionML=[ENU=&Text;
                                 NOR=&Tekst;
                                 SVE=&Text];
                      Image=Text;
                      OnAction=BEGIN
                                 EditText;
                               END;
                                }
      { 1100525026;2 ;Action    ;
                      CaptionML=[ENU=Purchase &Line details;
                                 NOR=Innkj›ps&raddetaljer;
                                 SVE=Ink”ps&raddetaljer];
                      Image=ViewCheck;
                      OnAction=VAR
                                 PurchaseLineDetail@1100525001 : Record 11020660;
                               BEGIN
                                 PurchaseLineDetail.ShowCard(PurchaseLineDetail."Line Type"::"Budget Line",
                                   0, "Project No.", '', '', 0, '', '', '', "Line No.", FALSE);
                               END;
                                }
      { 1905210204;2 ;Action    ;
                      CaptionML=[ENU=Purchase Route References;
                                 NOR=Referanser for innkj›psruter;
                                 SVE=Referenser f”r ink”psf”ljd];
                      Image=ContactReference;
                      OnAction=BEGIN
                                 ShowPurchRouteRef;
                               END;
                                }
      { 1903326104;2 ;Action    ;
                      CaptionML=[ENU=Item Features;
                                 NOR=Artikkelfunksjoner;
                                 SVE=Artikelfunktioner];
                      Image=BulletList;
                      OnAction=BEGIN
                                 ShowItemRouteRef;
                               END;
                                }
      { 1100525003;1 ;ActionGroup;
                      CaptionML=[ENU=Bill of material;
                                 NOR=Stykkliste;
                                 SVE=Struktur] }
      { 1901540504;2 ;Action    ;
                      CaptionML=[ENU=Explode Bill of Materials;
                                 NOR=Utfold stykklister;
                                 SVE=Expandera strukturer];
                      Image=ExplodeBOM;
                      OnAction=BEGIN
                                 ExplodeBOM;
                               END;
                                }
      { 1100525007;2 ;Action    ;
                      CaptionML=[ENU=Modify BOM Discount;
                                 NOR=Endre stykklisterabatt;
                                 SVE=Žndra strukturrabatt];
                      Image=CopyFromBOM;
                      OnAction=BEGIN
                                 UpgradeBOMDiscount;
                               END;
                                }
      { 1100525009;2 ;Action    ;
                      CaptionML=[ENU=Modify BOM Amount;
                                 NOR=Endre stykklistebel›p;
                                 SVE=Žndra strukturbelopp];
                      Image=CopyFromBOM;
                      OnAction=BEGIN
                                 UpgradeBOMAmount;
                               END;
                                }
      { 1100525011;2 ;Action    ;
                      CaptionML=[ENU=Remove Zero-Lines BOM;
                                 NOR=Vil du fjerne Null-rader i stykkliste?;
                                 SVE=Vill du ta bort nollrader i strukturen?];
                      Image=Delete;
                      OnAction=BEGIN
                                 RemoveZeroLinesBOM;
                               END;
                                }
    }
  }
  CONTROLS
  {
    { 1900000001;0;Container;
                ContainerType=ContentArea }

    { 1   ;1   ;Group     ;
                GroupType=Repeater }

    { 1100525016;2;Field  ;
                SourceExpr="Line No.";
                Visible=FALSE;
                Editable=FALSE }

    { 4   ;2   ;Field     ;
                SourceExpr=Element;
                Editable=ElementEditable }

    { 1100485018;2;Field  ;
                SourceExpr="Element Description";
                Visible=FALSE }

    { 1100525002;2;Field  ;
                SourceExpr=Chapter;
                Visible=FALSE }

    { 1100525004;2;Field  ;
                SourceExpr=Paragraph;
                Visible=FALSE }

    { 1210190018;2;Field  ;
                SourceExpr="Extension Contract";
                Visible=FALSE;
                Enabled=FALSE;
                Editable=FALSE }

    { 1100409000;2;Field  ;
                SourceExpr=Adjustment;
                Visible=FALSE;
                Editable=false }

    { 1100485042;2;Field  ;
                SourceExpr="Plot No.";
                Visible=FALSE;
                Editable="Plot No.Editable" }

    { 1100528902;2;Field  ;
                SourceExpr="Block No.";
                Visible=FALSE }

    { 1100485044;2;Field  ;
                SourceExpr="House Model";
                Visible=FALSE;
                Editable="House ModelEditable" }

    { 1100485046;2;Field  ;
                SourceExpr="Main Group";
                Visible=FALSE;
                Editable="Main GroupEditable" }

    { 1100485048;2;Field  ;
                SourceExpr=Group;
                Visible=FALSE;
                Editable=GroupEditable }

    { 1100485050;2;Field  ;
                SourceExpr="Sub Group";
                Visible=FALSE;
                Editable="Sub GroupEditable" }

    { 1100485040;2;Field  ;
                SourceExpr=Option;
                Visible=FALSE;
                Editable=OptionEditable }

    { 1100529401;2;Field  ;
                Name=BudgetPlanningActivityNo;
                CaptionML=[ENU=Project Planning Activity No.;
                           NOR=Aktivitetsnummer for prosjektplanlegging;
                           SVE=Projektplaneringsaktivitetsnr];
                Description=UKR-C21177 (BI017);
                SourceExpr=BudgetPlanningActivityNo;
                Visible=FALSE;
                OnValidate=BEGIN
                             BudgetPlanningActivityNoOnValidate(BudgetPlanningActivityNo);
                             GetBudgetPlanningActivitiesForDisplay(BudgetPlanningActivityNo,BudgetPlanningActDescr);
                           END;

                OnLookup=VAR
                           ProjectPlanningActivity@1100529400 : Record 11012431;
                         BEGIN
                           IF BudgetPlanningActivityNoOnLookup(ProjectPlanningActivity) THEN
                             IF ReplaceBudgetPlaningActivities(ProjectPlanningActivity) THEN
                               GetBudgetPlanningActivitiesForDisplay(BudgetPlanningActivityNo,BudgetPlanningActDescr);
                         END;

                OnAssistEdit=BEGIN
                               BudgetPlanningActivityNoOnAssistEdit;
                             END;
                              }

    { 1100529400;2;Field  ;
                Name=BudgetPlanningActDescr;
                CaptionML=[ENU=Project Planning Activity Description;
                           NOR=Beskrivelse av prosjektplanleggingsaktivitet;
                           SVE=Beskrivning av projektplaneringsaktivitet];
                Description=UKR-C21177 (BI017);
                SourceExpr=BudgetPlanningActDescr;
                Visible=FALSE;
                Editable=FALSE }

    { 1100525025;2;Field  ;
                SourceExpr=Room;
                Visible=FALSE }

    { 1100485000;2;Field  ;
                SourceExpr="Tender Paragraph";
                Editable="Tender ParagraphEditable";
                OnValidate=BEGIN
                             TenderParagraphOnAfterValidate;
                           END;
                            }

    { 1100485006;2;Field  ;
                SourceExpr="Description Tender Paragraph";
                Visible=FALSE }

    { 1100525010;2;Field  ;
                SourceExpr="Tender Paragraph Text";
                Visible=FALSE }

    { 1100485002;2;Field  ;
                SourceExpr="Tender Paragraph Part";
                Editable="Tender Paragraph PartEditable";
                OnValidate=BEGIN
                             TenderParagraphtPartOnAfterVal;
                           END;
                            }

    { 1100485008;2;Field  ;
                SourceExpr="Descr Tender Paragraph Part";
                Visible=FALSE }

    { 1100485020;2;Field  ;
                SourceExpr="Estimate No.";
                Visible=FALSE }

    { 1100528600;2;Field  ;
                SourceExpr="Sub-Estimate No.";
                Visible=FALSE }

    { 1100528901;2;Field  ;
                SourceExpr="Plant Rates in Hours";
                Visible=FALSE;
                OnValidate=BEGIN
                             SetFieldsEditable;  //C040847
                           END;
                            }

    { 1100528505;2;Field  ;
                SourceExpr="Subcontracting in Hours";
                Visible=FALSE;
                OnValidate=BEGIN
                             SetFieldsEditable;  //C040847
                           END;
                            }

    { 2   ;2   ;Field     ;
                SourceExpr="Cost Type";
                Editable=CostTypeEditable;
                OnValidate=BEGIN
                             SetFieldsEditable;
                           END;
                            }

    { 1100525006;2;Field  ;
                SourceExpr="Recipe Group";
                Visible=FALSE;
                Editable="Recipe GroupEditable" }

    { 1100525008;2;Field  ;
                SourceExpr=Recipe;
                Visible=FALSE;
                Editable=RecipeEditable;
                OnLookup=BEGIN
                           LookupRecipe(Fixed);  //DP00381
                           CurrPage.UPDATE(FALSE);
                         END;
                          }

    { 6   ;2   ;Field     ;
                SourceExpr="Item No.";
                Editable=ItemNoEditable;
                OnValidate=BEGIN
                             ItemNoOnAfterValidate;
                             SetFieldsEditable;
                           END;

                OnLookup=BEGIN
                           IF Fixed THEN
                             ERROR(Text005);

                           IF NOT ItemNoEditable THEN
                             EXIT;

                           IF HandleLookupItem(FIELDNO("Item No.")) THEN  //DP02213
                             CurrPage.UPDATE(FALSE);

                           SetFieldsEditable;
                         END;
                          }

    { 1100525018;2;Field  ;
                SourceExpr="Variant Code";
                Visible=FALSE;
                Editable="Variant CodeEditable" }

    { 8   ;2   ;Field     ;
                SourceExpr=Manufacturer;
                Visible=FALSE;
                Enabled=TradeItemEnabled;
                Editable=ItemNoEditable }

    { 10  ;2   ;Field     ;
                SourceExpr="Basic Item";
                Visible=FALSE;
                Enabled=TradeItemEnabled;
                Editable=ItemNoEditable;
                OnValidate=BEGIN
                             SetFieldsEditable;
                           END;

                OnLookup=BEGIN
                           IF Fixed THEN
                             ERROR(Text005);

                           IF NOT ItemNoEditable THEN
                             EXIT;

                           IF HandleLookupItem(FIELDNO("Basic Item")) THEN  //DP02213
                             CurrPage.UPDATE(FALSE);

                           SetFieldsEditable;
                         END;
                          }

    { 12  ;2   ;Field     ;
                SourceExpr="Vendor (Trade Item)";
                Enabled=TradeItemEnabled;
                Editable=ItemNoEditable }

    { 14  ;2   ;Field     ;
                SourceExpr="Trade Item";
                Enabled=TradeItemEnabled;
                Editable=ItemNoEditable;
                OnValidate=BEGIN
                             SetFieldsEditable;
                           END;

                OnLookup=BEGIN
                           IF Fixed THEN
                             ERROR(Text005);

                           IF NOT ItemNoEditable THEN
                             EXIT;

                           IF HandleLookupItem(FIELDNO("Trade Item")) THEN  //DP02213
                             CurrPage.UPDATE(FALSE);

                           SetFieldsEditable;
                         END;

                OnAssistEdit=BEGIN
                               IF (HandleAssistEditItem(FIELDNO("Trade Item"))) THEN
                                 CurrPage.UPDATE(TRUE);
                             END;
                              }

    { 1100485012;2;Field  ;
                SourceExpr="Item Brand";
                Visible=FALSE }

    { 1100485014;2;Field  ;
                SourceExpr="Item Type";
                Visible=FALSE }

    { 1100485016;2;Field  ;
                SourceExpr="Item Series";
                Visible=FALSE }

    { 1100529600;2;Field  ;
                SourceExpr="Plant Company";
                Visible=FALSE;
                Editable=PlantEditable }

    { 1100529601;2;Field  ;
                SourceExpr="Plant Location";
                Visible=FALSE;
                Editable=PlantEditable }

    { 1210190002;2;Field  ;
                SourceExpr="Plant Type";
                Visible=FALSE;
                Editable=PlantEditable }

    { 18  ;2   ;Field     ;
                SourceExpr="Cost Object";
                Editable=CostObjectEditable;
                LookupPageID=Cost Object List;
                OnValidate=BEGIN
                             SetFieldsEditable;
                           END;
                            }

    { 1100485010;2;Field  ;
                SourceExpr="Cost Component";
                Visible=FALSE;
                Editable=CostComponentEditable }

    { 1100529000;2;Field  ;
                SourceExpr="FSC Type Code";
                Visible=FALSE }

    { 20  ;2   ;Field     ;
                SourceExpr=Description;
                Editable=DescriptionEditable;
                Style=AttentionAccent;
                StyleExpr=DescriptionStyleExpr }

    { 1210190008;2;Field  ;
                SourceExpr="Description 2";
                Visible=FALSE;
                Editable=Description2Editable }

    { 1210190000;2;Field  ;
                SourceExpr="External Text Block";
                Visible=FALSE }

    { 22  ;2   ;Field     ;
                SourceExpr="Time Quantity";
                Visible=FALSE;
                Editable=TimeQuantityEditable;
                OnValidate=BEGIN
                             UpdateSummary;
                           END;
                            }

    { 24  ;2   ;Field     ;
                SourceExpr="Unit of Time";
                Visible=FALSE;
                Editable=UnitOfTimeEditable }

    { 26  ;2   ;Field     ;
                SourceExpr=Quantity;